Input Parameters:
   integrator                     = md
   tinit                          = 0
   dt                             = 0.002
   nsteps                         = 50000
   init-step                      = 0
   simulation-part                = 1
   comm-mode                      = Linear
   nstcomm                        = 100
   bd-fric                        = 0
   ld-seed                        = -1536470287
   emtol                          = 10
   emstep                         = 0.01
   niter                          = 20
   fcstep                         = 0
   nstcgsteep                     = 1000
   nbfgscorr                      = 10
   rtpi                           = 0.05
   nstxout                        = 500
   nstvout                        = 500
   nstfout                        = 0
   nstlog                         = 500
   nstcalcenergy                  = 100
   nstenergy                      = 500
   nstxout-compressed             = 0
   compressed-x-precision         = 1000
   cutoff-scheme                  = Verlet
   nstlist                        = 40
   ns-type                        = Grid
   pbc                            = xyz
   periodic-molecules             = false
   verlet-buffer-tolerance        = 0.005
   rlist                          = 1.094
   coulombtype                    = PME
   coulomb-modifier               = Potential-shift
   rcoulomb-switch                = 0
   rcoulomb                       = 1
   epsilon-r                      = 1
   epsilon-rf                     = inf
   vdw-type                       = Cut-off
   vdw-modifier                   = Potential-shift
   rvdw-switch                    = 0
   rvdw                           = 1
   DispCorr                       = EnerPres
   table-extension                = 1
   fourierspacing                 = 0.16
   fourier-nx                     = 64
   fourier-ny                     = 64
   fourier-nz                     = 64
   pme-order                      = 4
   ewald-rtol                     = 1e-05
   ewald-rtol-lj                  = 0.001
   lj-pme-comb-rule               = Geometric
   ewald-geometry                 = 0
   epsilon-surface                = 0
   implicit-solvent               = No
   gb-algorithm                   = Still
   nstgbradii                     = 1
   rgbradii                       = 1
   gb-epsilon-solvent             = 80
   gb-saltconc                    = 0
   gb-obc-alpha                   = 1
   gb-obc-beta                    = 0.8
   gb-obc-gamma                   = 4.85
   gb-dielectric-offset           = 0.009
   sa-algorithm                   = Ace-approximation
   sa-surface-tension             = 2.05016
   tcoupl                         = V-rescale
   nsttcouple                     = 5
   nh-chain-length                = 0
   print-nose-hoover-chain-variables = false
   pcoupl                         = No
   pcoupltype                     = Isotropic
   nstpcouple                     = -1
   tau-p                          = 1
   compressibility (3x3):
      compressibility[    0]={ 0.00000e+00,  0.00000e+00,  0.00000e+00}
      compressibility[    1]={ 0.00000e+00,  0.00000e+00,  0.00000e+00}
      compressibility[    2]={ 0.00000e+00,  0.00000e+00,  0.00000e+00}
   ref-p (3x3):
      ref-p[    0]={ 0.00000e+00,  0.00000e+00,  0.00000e+00}
      ref-p[    1]={ 0.00000e+00,  0.00000e+00,  0.00000e+00}
      ref-p[    2]={ 0.00000e+00,  0.00000e+00,  0.00000e+00}
   refcoord-scaling               = No
   posres-com (3):
      posres-com[0]= 0.00000e+00
      posres-com[1]= 0.00000e+00
      posres-com[2]= 0.00000e+00
   posres-comB (3):
      posres-comB[0]= 0.00000e+00
      posres-comB[1]= 0.00000e+00
      posres-comB[2]= 0.00000e+00
   QMMM                           = false
   QMconstraints                  = 0
   QMMMscheme                     = 0
   MMChargeScaleFactor            = 1
qm-opts:
   ngQM                           = 0
   constraint-algorithm           = Lincs
   continuation                   = false
   Shake-SOR                      = false
   shake-tol                      = 0.0001
   lincs-order                    = 4
   lincs-iter                     = 1
   lincs-warnangle                = 30
   nwall                          = 0
   wall-type                      = 9-3
   wall-r-linpot                  = -1
   wall-atomtype[0]               = -1
   wall-atomtype[1]               = -1
   wall-density[0]                = 0
   wall-density[1]                = 0
   wall-ewald-zfac                = 3
   pull                           = false
   rotation                       = false
   interactiveMD                  = false
   disre                          = No
   disre-weighting                = Conservative
   disre-mixed                    = false
   dr-fc                          = 1000
   dr-tau                         = 0
   nstdisreout                    = 100
   orire-fc                       = 0
   orire-tau                      = 0
   nstorireout                    = 100
   free-energy                    = no
   cos-acceleration               = 0
   deform (3x3):
      deform[    0]={ 0.00000e+00,  0.00000e+00,  0.00000e+00}
      deform[    1]={ 0.00000e+00,  0.00000e+00,  0.00000e+00}
      deform[    2]={ 0.00000e+00,  0.00000e+00,  0.00000e+00}
   simulated-tempering            = false
   E-x:
      n = 0
   E-xt:
      n = 0
   E-y:
      n = 0
   E-yt:
      n = 0
   E-z:
      n = 0
   E-zt:
      n = 0
   swapcoords                     = no
   userint1                       = 0
   userint2                       = 0
   userint3                       = 0
   userint4                       = 0
   userreal1                      = 0
   userreal2                      = 0
   userreal3                      = 0
   userreal4                      = 0
grpopts:
   nrdf:     4511.93      191499
   ref-t:      298.15      298.15
   tau-t:         0.1         0.1
annealing:          No          No
annealing-npoints:           0           0
   acc:	           0           0           0
   nfreeze:           N           N           N
   energygrp-flags[  0]: 0 0
   energygrp-flags[  1]: 0 0

Initializing Domain Decomposition on 2 ranks
Dynamic load balancing: auto
Initial maximum inter charge-group distances:
    two-body bonded interactions: 0.425 nm, LJ-14, atoms 756 764
  multi-body bonded interactions: 0.425 nm, Proper Dih., atoms 756 764
Minimum cell size due to bonded interactions: 0.467 nm
Maximum distance for 5 constraints, at 120 deg. angles, all-trans: 0.819 nm
Estimated maximum distance required for P-LINCS: 0.819 nm
This distance will limit the DD cell size, you can override this with -rcon
Using 0 separate PME ranks, per user request
Scaling the initial minimum size with 1/0.8 (option -dds) = 1.25
Optimizing the DD grid for 2 cells with a minimum initial size of 1.024 nm
The maximum allowed number of cells is: X 9 Y 9 Z 9
Domain decomposition grid 2 x 1 x 1, separate PME ranks 0
PME domain decomposition: 2 x 1 x 1
Domain decomposition rank 0, coordinates 0 0 0

The initial number of communication pulses is: X 1
The initial domain decomposition cell size is: X 5.00 nm

The maximum allowed distance for charge groups involved in interactions is:
                 non-bonded interactions           1.094 nm
            two-body bonded interactions  (-rdd)   1.094 nm
          multi-body bonded interactions  (-rdd)   1.094 nm
  atoms separated by up to 5 constraints  (-rcon)  5.000 nm

When dynamic load balancing gets turned on, these settings will change to:
The maximum number of communication pulses is: X 1
The minimum size for domain decomposition cells is 1.094 nm
The requested allowed shrink of DD cells (option -dds) is: 0.80
The allowed shrink of domain decomposition cells is: X 0.22
The maximum allowed distance for charge groups involved in interactions is:
                 non-bonded interactions           1.094 nm
            two-body bonded interactions  (-rdd)   1.094 nm
          multi-body bonded interactions  (-rdd)   1.094 nm
  atoms separated by up to 5 constraints  (-rcon)  1.094 nm

Using 2 MPI threads
Using 3 OpenMP threads per tMPI thread

2 GPUs user-selected for this run.
Mapping of GPU IDs to the 2 PP ranks in this node: 0,1

Will do PME sum in reciprocal space for electrostatic interactions.

Will do ordinary reciprocal space Ewald sum.
Using a Gaussian width (1/beta) of 0.320163 nm for Ewald
Cut-off's:   NS: 1.094   Coulomb: 1   LJ: 1
Long Range LJ corr.: <C6> 2.9038e-04
System total charge: 0.000
Generated table with 1046 data points for Ewald.
Tabscale = 500 points/nm
Generated table with 1046 data points for LJ6.
Tabscale = 500 points/nm
Generated table with 1046 data points for LJ12.
Tabscale = 500 points/nm
Generated table with 1046 data points for 1-4 COUL.
Tabscale = 500 points/nm
Generated table with 1046 data points for 1-4 LJ6.
Tabscale = 500 points/nm
Generated table with 1046 data points for 1-4 LJ12.
Tabscale = 500 points/nm
Potential shift: LJ r^-12: -1.000e+00 r^-6: -1.000e+00, Ewald -1.000e-05
Initialized non-bonded Ewald correction tables, spacing: 9.33e-04 size: 1073

NOTE: GROMACS was configured without NVML support hence it can not exploit
      application clocks of the detected Quadro M4000 GPU to improve performance.
      Recompile with the NVML library (compatible with the driver used) or set application clocks manually.

Using GPU 8x8 non-bonded kernels

Using Lorentz-Berthelot Lennard-Jones combination rule

NOTE: With GPUs, reporting energy group contributions is not supported

Removing pbc first time

NOTE: The number of threads is not equal to the number of (logical) cores
      and the -pin option is set to auto: will not pin thread to cores.
      This can lead to significant performance degradation.
      Consider using -pin on (and -pinoffset in case you run multiple jobs).

NOTE: Thread affinity setting failed. This can cause performance degradation.
      If you think your settings are correct, ask on the gmx-users list.

Initializing Parallel LINear Constraint Solver

The number of constraints is 2274
There are inter charge-group constraints,
will communicate selected coordinates each lincs iteration

Linking all bonded interactions to atoms

Intra-simulation communication will occur every 5 steps.
Center of mass motion removal mode is Linear
We have the following groups for center of mass motion removal:
  0:  rest

There are: 97913 Atoms
Atom distribution over 2 domains: av 48956 stddev 270 min 48801 max 49112

NOTE: DLB will not turn on during the first phase of PME tuning

Constraining the starting coordinates (step 0)

Constraining the coordinates at t0-dt (step 0)
RMS relative constraint deviation after constraining: 3.06e-05
Initial temperature: 298.755 K

Started mdrun on rank 0 Wed Dec 19 02:22:14 2018
           Step           Time
              0        0.00000

   Energies (kJ/mol)
          Angle    Proper Dih.  Improper Dih.          LJ-14     Coulomb-14
    4.36464e+03    5.69100e+03    1.81069e+02    2.38264e+03    3.51904e+04
        LJ (SR)  Disper. corr.   Coulomb (SR)   Coul. recip. Position Rest.
    2.03477e+05   -1.16467e+04   -1.63166e+06    9.32084e+03    5.08183e+01
      Potential    Kinetic En.   Total Energy  Conserved En.    Temperature
   -1.38265e+06    2.46387e+05   -1.13626e+06   -1.13626e+06    3.02366e+02
   -1.93634e+02   -2.44259e+02    3.32666e-05

	<====  A V E R A G E S  ====>

	Statistics over 50001 steps using 501 frames

   Energies (kJ/mol)
          Angle    Proper Dih.  Improper Dih.          LJ-14     Coulomb-14
    4.27721e+03    5.69524e+03    1.92577e+02    2.39084e+03    3.52502e+04
        LJ (SR)  Disper. corr.   Coulomb (SR)   Coul. recip. Position Rest.
    2.02273e+05   -1.16467e+04   -1.62731e+06    6.23887e+03    2.78655e+03
      Potential    Kinetic En.   Total Energy  Conserved En.    Temperature
   -1.37986e+06    2.42990e+05   -1.13687e+06   -1.13813e+06    2.98198e+02
 Pres. DC (bar) Pressure (bar)   Constr. rmsd
   -1.93634e+02   -2.81999e+01    0.00000e+00

   Total Virial (kJ/mol)
    9.32526e+04   -4.55336e+02   -6.58027e+02
   -4.53011e+02    7.54039e+04   -2.79192e+02
   -6.56000e+02   -2.78848e+02    7.68812e+04

   Pressure (bar)
   -4.06753e+02    1.55131e+01    2.06665e+01
    1.54359e+01    1.86312e+02    9.40473e+00
    2.05992e+01    9.39331e+00    1.35841e+02

  Epot (kJ/mol)        Coul-SR          LJ-SR        Coul-14          LJ-14
Protein-Protein   -1.62731e+06    2.02273e+05    3.52502e+04    2.39084e+03
Protein-non-Protein    0.00000e+00    0.00000e+00    0.00000e+00    0.00000e+00
non-Protein-non-Protein    0.00000e+00    0.00000e+00    0.00000e+00    0.00000e+00

      T-Protein  T-non-Protein
    2.98158e+02    2.98199e+02
